EV_100_ZIPtest_EV15.txt
New Load.EV1 Phases=1 Bus1=34.1 kV=0.23 kW=1 PF=-0.9740 Yearly=EV_1 model=8 ZIPV=(0,0.955,0.045,0.602,0.398,0,0.6) vminpu=0.6
New Load.EV2 Phases=1 Bus1=47.2 kV=0.23 kW=1 PF=-0.9740 Yearly=EV_2 model=8 ZIPV=(0,0.955,0.045,0.602,0.398,0,0.6) vminpu=0.6
New Load.EV3 Phases=1 Bus1=70.1 kV=0.23 kW=1 PF=-0.9740 Yearly=EV_3 model=8 ZIPV=(0,0.955,0.045,0.602,0.398,0,0.6) vminpu=0.6
New Load.EV4 Phases=1 Bus1=73.1 kV=0.23 kW=1 PF=-0.9740 Yearly=EV_4 model=8 ZIPV=(0,0.955,0.045,0.602,0.398,0,0.6) vminpu=0.6
New Load.EV5 Phases=1 Bus1=74.1 kV=0.23 kW=1 PF=-0.9740 Yearly=EV_5 model=8 ZIPV=(0,0.955,0.045,0.602,0.398,0,0.6) vminpu=0.6
New Load.EV6 Phases=1 Bus1=83.2 kV=0.23 kW=1 PF=-0.9740 Yearly=EV_6 model=8 ZIPV=(0,0.955,0.045,0.602,0.398,0,0.6) vminpu=0.6
New Load.EV7 Phases=1 Bus1=178.2 kV=0.23 kW=1 PF=-0.9740 Yearly=EV_7 model=8 ZIPV=(0,0.955,0.045,0.602,0.398,0,0.6) vminpu=0.6
New Load.EV8 Phases=1 Bus1=208.3 kV=0.23 kW=1 PF=-0.9740 Yearly=EV_8 model=8 ZIPV=(0,0.955,0.045,0.602,0.398,0,0.6) vminpu=0.6
New Load.EV9 Phases=1 Bus1=225.1 kV=0.23 kW=1 PF=-0.9740 Yearly=EV_9 model=8 ZIPV=(0,0.955,0.045,0.602,0.398,0,0.6) vminpu=0.6
New Load.EV10 Phases=1 Bus1=248.2 kV=0.23 kW=1 PF=-0.9740 Yearly=EV_10 model=8 ZIPV=(0,0.955,0.045,0.602,0.398,0,0.6) vminpu=0.6
New Load.EV11 Phases=1 Bus1=249.2 kV=0.23 kW=1 PF=-0.9740 Yearly=EV_11 model=8 ZIPV=(0,0.955,0.045,0.602,0.398,0,0.6) vminpu=0.6
New Load.EV12 Phases=1 Bus1=264.3 kV=0.23 kW=1 PF=-0.9740 Yearly=EV_12 model=8 ZIPV=(0,0.955,0.045,0.602,0.398,0,0.6) vminpu=0.6
New Load.EV13 Phases=1 Bus1=276.2 kV=0.23 kW=1 PF=-0.9740 Yearly=EV_13 model=8 ZIPV=(0,0.955,0.045,0.602,0.398,0,0.6) vminpu=0.6
New Load.EV14 Phases=1 Bus1=289.1 kV=0.23 kW=1 PF=-0.9740 Yearly=EV_14 model=8 ZIPV=(0,0.955,0.045,0.602,0.398,0,0.6) vminpu=0.6
New Load.EV15 Phases=1 Bus1=314.2 kV=0.23 kW=1 PF=-0.9740 Yearly=EV_15 model=8 ZIPV=(0,0.955,0.045,0.602,0.398,0,0.6) vminpu=0.6
New Load.EV16 Phases=1 Bus1=320.3 kV=0.23 kW=1 PF=-0.9740 Yearly=EV_16 model=8 ZIPV=(0,0.955,0.045,0.602,0.398,0,0.6) vminpu=0.6
New Load.EV17 Phases=1 Bus1=327.3 kV=0.23 kW=1 PF=-0.9740 Yearly=EV_17 model=8 ZIPV=(0,0.955,0.045,0.602,0.398,0,0.6) vminpu=0.6
New Load.EV18 Phases=1 Bus1=337.3 kV=0.23 kW=1 PF=-0.9740 Yearly=EV_18 model=8 ZIPV=(0,0.955,0.045,0.602,0.398,0,0.6) vminpu=0.6
New Load.EV19 Phases=1 Bus1=342.3 kV=0.23 kW=1 PF=-0.9740 Yearly=EV_19 model=8 ZIPV=(0,0.955,0.045,0.602,0.398,0,0.6) vminpu=0.6
New Load.EV20 Phases=1 Bus1=349.1 kV=0.23 kW=1 PF=-0.9740 Yearly=EV_20 model=8 ZIPV=(0,0.955,0.045,0.602,0.398,0,0.6) vminpu=0.6
New Load.EV21 Phases=1 Bus1=387.1 kV=0.23 kW=1 PF=-0.9740 Yearly=EV_21 model=8 ZIPV=(0,0.955,0.045,0.602,0.398,0,0.6) vminpu=0.6
New Load.EV22 Phases=1 Bus1=388.1 kV=0.23 kW=1 PF=-0.9740 Yearly=EV_22 model=8 ZIPV=(0,0.955,0.045,0.602,0.398,0,0.6) vminpu=0.6
New Load.EV23 Phases=1 Bus1=406.2 kV=0.23 kW=1 PF=-0.9740 Yearly=EV_23 model=8 ZIPV=(0,0.955,0.045,0.602,0.398,0,0.6) vminpu=0.6
New Load.EV24 Phases=1 Bus1=458.3 kV=0.23 kW=1 PF=-0.9740 Yearly=EV_24 model=8 ZIPV=(0,0.955,0.045,0.602,0.398,0,0.6) vminpu=0.6
New Load.EV25 Phases=1 Bus1=502.1 kV=0.23 kW=1 PF=-0.9740 Yearly=EV_25 model=8 ZIPV=(0,0.955,0.045,0.602,0.398,0,0.6) vminpu=0.6
New Load.EV26 Phases=1 Bus1=522.2 kV=0.23 kW=1 PF=-0.9740 Yearly=EV_26 model=8 ZIPV=(0,0.955,0.045,0.602,0.398,0,0.6) vminpu=0.6
New Load.EV27 Phases=1 Bus1=539.3 kV=0.23 kW=1 PF=-0.9740 Yearly=EV_27 model=8 ZIPV=(0,0.955,0.045,0.602,0.398,0,0.6) vminpu=0.6
New Load.EV28 Phases=1 Bus1=556.3 kV=0.23 kW=1 PF=-0.9740 Yearly=EV_28 model=8 ZIPV=(0,0.955,0.045,0.602,0.398,0,0.6) vminpu=0.6
New Load.EV29 Phases=1 Bus1=562.1 kV=0.23 kW=1 PF=-0.9740 Yearly=EV_29 model=8 ZIPV=(0,0.955,0.045,0.602,0.398,0,0.6) vminpu=0.6
New Load.EV30 Phases=1 Bus1=563.1 kV=0.23 kW=1 PF=-0.9740 Yearly=EV_30 model=8 ZIPV=(0,0.955,0.045,0.602,0.398,0,0.6) vminpu=0.6
New Load.EV31 Phases=1 Bus1=611.1 kV=0.23 kW=1 PF=-0.9740 Yearly=EV_31 model=8 ZIPV=(0,0.955,0.045,0.602,0.398,0,0.6) vminpu=0.6
New Load.EV32 Phases=1 Bus1=614.3 kV=0.23 kW=1 PF=-0.9740 Yearly=EV_32 model=8 ZIPV=(0,0.955,0.045,0.602,0.398,0,0.6) vminpu=0.6
New Load.EV33 Phases=1 Bus1=619.3 kV=0.23 kW=1 PF=-0.9740 Yearly=EV_33 model=8 ZIPV=(0,0.955,0.045,0.602,0.398,0,0.6) vminpu=0.6
New Load.EV34 Phases=1 Bus1=629.1 kV=0.23 kW=1 PF=-0.9740 Yearly=EV_34 model=8 ZIPV=(0,0.955,0.045,0.602,0.398,0,0.6) vminpu=0.6
New Load.EV35 Phases=1 Bus1=639.2 kV=0.23 kW=1 PF=-0.9740 Yearly=EV_35 model=8 ZIPV=(0,0.955,0.045,0.602,0.398,0,0.6) vminpu=0.6
New Load.EV36 Phases=1 Bus1=676.2 kV=0.23 kW=1 PF=-0.9740 Yearly=EV_36 model=8 ZIPV=(0,0.955,0.045,0.602,0.398,0,0.6) vminpu=0.6
New Load.EV37 Phases=1 Bus1=682.2 kV=0.23 kW=1 PF=-0.9740 Yearly=EV_37 model=8 ZIPV=(0,0.955,0.045,0.602,0.398,0,0.6) vminpu=0.6
New Load.EV38 Phases=1 Bus1=688.2 kV=0.23 kW=1 PF=-0.9740 Yearly=EV_38 model=8 ZIPV=(0,0.955,0.045,0.602,0.398,0,0.6) vminpu=0.6
New Load.EV39 Phases=1 Bus1=701.3 kV=0.23 kW=1 PF=-0.9740 Yearly=EV_39 model=8 ZIPV=(0,0.955,0.045,0.602,0.398,0,0.6) vminpu=0.6
New Load.EV40 Phases=1 Bus1=702.2 kV=0.23 kW=1 PF=-0.9740 Yearly=EV_40 model=8 ZIPV=(0,0.955,0.045,0.602,0.398,0,0.6) vminpu=0.6
New Load.EV41 Phases=1 Bus1=755.2 kV=0.23 kW=1 PF=-0.9740 Yearly=EV_41 model=8 ZIPV=(0,0.955,0.045,0.602,0.398,0,0.6) vminpu=0.6
New Load.EV42 Phases=1 Bus1=778.3 kV=0.23 kW=1 PF=-0.9740 Yearly=EV_42 model=8 ZIPV=(0,0.955,0.045,0.602,0.398,0,0.6) vminpu=0.6
New Load.EV43 Phases=1 Bus1=780.3 kV=0.23 kW=1 PF=-0.9740 Yearly=EV_43 model=8 ZIPV=(0,0.955,0.045,0.602,0.398,0,0.6) vminpu=0.6
New Load.EV44 Phases=1 Bus1=785.2 kV=0.23 kW=1 PF=-0.9740 Yearly=EV_44 model=8 ZIPV=(0,0.955,0.045,0.602,0.398,0,0.6) vminpu=0.6
New Load.EV45 Phases=1 Bus1=813.2 kV=0.23 kW=1 PF=-0.9740 Yearly=EV_45 model=8 ZIPV=(0,0.955,0.045,0.602,0.398,0,0.6) vminpu=0.6
New Load.EV46 Phases=1 Bus1=817.1 kV=0.23 kW=1 PF=-0.9740 Yearly=EV_46 model=8 ZIPV=(0,0.955,0.045,0.602,0.398,0,0.6) vminpu=0.6
New Load.EV47 Phases=1 Bus1=835.3 kV=0.23 kW=1 PF=-0.9740 Yearly=EV_47 model=8 ZIPV=(0,0.955,0.045,0.602,0.398,0,0.6) vminpu=0.6
New Load.EV48 Phases=1 Bus1=860.1 kV=0.23 kW=1 PF=-0.9740 Yearly=EV_48 model=8 ZIPV=(0,0.955,0.045,0.602,0.398,0,0.6) vminpu=0.6
New Load.EV49 Phases=1 Bus1=861.1 kV=0.23 kW=1 PF=-0.9740 Yearly=EV_49 model=8 ZIPV=(0,0.955,0.045,0.602,0.398,0,0.6) vminpu=0.6
New Load.EV50 Phases=1 Bus1=886.2 kV=0.23 kW=1 PF=-0.9740 Yearly=EV_50 model=8 ZIPV=(0,0.955,0.045,0.602,0.398,0,0.6) vminpu=0.6 
New Load.EV51 Phases=1 Bus1=896.1 kV=0.23 kW=1 PF=-0.9740 Yearly=EV_51 model=8 ZIPV=(0,0.955,0.045,0.602,0.398,0,0.6) vminpu=0.6
New Load.EV52 Phases=1 Bus1=898.1 kV=0.23 kW=1 PF=-0.9740 Yearly=EV_52 model=8 ZIPV=(0,0.955,0.045,0.602,0.398,0,0.6) vminpu=0.6
New Load.EV53 Phases=1 Bus1=899.2 kV=0.23 kW=1 PF=-0.9740 Yearly=EV_53 model=8 ZIPV=(0,0.955,0.045,0.602,0.398,0,0.6) vminpu=0.6
New Load.EV54 Phases=1 Bus1=900.1 kV=0.23 kW=1 PF=-0.9740 Yearly=EV_54 model=8 ZIPV=(0,0.955,0.045,0.602,0.398,0,0.6) vminpu=0.6
New Load.EV55 Phases=1 Bus1=906.1 kV=0.23 kW=1 PF=-0.9740 Yearly=EV_55 model=8 ZIPV=(0,0.955,0.045,0.602,0.398,0,0.6) vminpu=0.6
